WS_Concat='"D:\CAA\TRACreateLineWS\." "C:\Program Files\Dassault Systemes\B19\."'
RTViewDataListPath='D:\CAA\TRACreateLineWS\.\TRACreateLineFW\various\win_b64\TRACreateLineFWUUID.m\module.data'
MKMK_DEVSTAGE=''
BUILT_OBJECT_TYPE='ARCHIVE'
MKMK_BSCMAKE=''
WSEKEY='M_TRACreateLineFWUUID'
MOD_Included='M_TRACreateLineFWUUID'
M_TRACreateLineFWUUID='mkArchive "D:\CAA\TRACreateLineWS\.\TRACreateLineFW\TRACreateLineFWUUID.m" TRACreateLineFWUUID TRACreateLineFWUUID - -'
MODNAME='TRACreateLineFWUUID'
CONTNAME='TRACreateLineFWUUID'
FWmkHLpath='D:\CAA\TRACreateLineWS\.\TRACreateLineFW\IdentityCard\Objects\win_b64\.mkHLpath.mk'
MKMK_WARNING=''
FWDNAME='TRACreateLineFW'
MKMK_ZIPJAVASOURCE=''
GPrivate='D:\CAA\TRACreateLineWS\.\TRACreateLineFW\PrivateGenerated\win_b64'
IPublic='D:\CAA\TRACreateLineWS\.\TRACreateLineFW\PublicInterfaces'
IPrivate='D:\CAA\TRACreateLineWS\.\TRACreateLineFW\PrivateInterfaces'
GPublic='D:\CAA\TRACreateLineWS\.\TRACreateLineFW\PublicGenerated\win_b64'
MKMK_DEBUGEDITANDCONTINUE=''
GProtected='D:\CAA\TRACreateLineWS\.\TRACreateLineFW\ProtectedGenerated\win_b64'
WSROOT='D:\CAA\TRACreateLineWS\.'
IProtected='D:\CAA\TRACreateLineWS\.\TRACreateLineFW\ProtectedInterfaces'
MKMK_DATA_VERSION='1.0.0'
STEPS_TO_CLEAN=''
NAME='D:\CAA\TRACreateLineWS\.\TRACreateLineFW\TRACreateLineFWUUID.m\Objects\win_b64\.mkdata.mk'
STEPS_TO_BUILD='grammar1st grammar2nd sourcecheck caacheck compilation sourceruler cpponly archive'
FWNAME='TRACreateLineFW'
MODPATH='D:\CAA\TRACreateLineWS\.\TRACreateLineFW\TRACreateLineFWUUID.m'
FW_AllPreq='AdvancedMathematics,20DD2151;AdvancedTopologicalOpe,20DD2151;ApplicationFrame,20DD2151;AutomationInterfaces,20DD2151;BasicTopologicalOpe,21ED2151;BatchInfrastructure,20DD2151;CAT3DXmlInterfaces,20DD2151;CATAssemblyInterfaces,20DD2151;CATCDS,20DD2151;CATCDSUtilities,20DD2151;CATCloudBasicResources,20DD2151;CATDataCompatibilityInfra,20DD2151;CATElfiniOpenSoftware,20DD2151;CATFuzzyOperators,20DD2151;CATGraphicProperties,20DD2151;CATIAApplicationFrame,20DD2151;CATIADataBasics,20DD2151;CATIADataMacFortran,20DD2151;CATImmWtpInterfaces,20DD2151;CATJavaBridge,20DD2151;CATPDMBaseInterfaces,20DD2151;CATPLMDictionary,20DD2151;CATShmInterfaces,20DD2151;CATSmarTeamIntegInterfaces,20DD2151;CATSubdivisionApproximation,20DD2151;CATSubdivisionMeshOperators,20DD2151;CATSubdivisionObjects,20DD2151;CATTechResultInterfaces,20DD2151;CATTechnologicalPackageUIItf,20DD2151;CATV4System,20DD2151;CATVirtualVaultSystem,20DD2151;CATWBx,20DD2151;CATXDocLinkInterfaces,20DD2151;CGMV5Interoperability,20DD2151;Communications,20DD2151;ComponentsCatalogsInterfaces,20DD2151;ConstraintModelerInterfaces,20DD2151;ConstraintSolver,20DD2151;CurveBasedGeoOperators,20DD2151;CurveBasedInfrastructure,20DD2151;CurveBasedMathematics,20DD2151;CurveBasedTopoOperators,20DD2151;DCM3D,20DD2151;Dialog,20DD2151;DialogEngine,20DD2151;DraftingInterfaces,20DD2151;FileMenu,20DD2151;FreeFormOperators,20DD2151;GSMInterfaces,20DD2151;GenericNaming,20CC2151;GeometricObjects,21ED2151;GeometricObjectsCGM,20DD2151;GeometricOperators,20DD2151;GeometryVisualization,20DD2151;Graph,20DD2151;HLRBase,20DD2151;InfInterfaces,20DD2151;InteractiveInterfaces,21ED2151;KnowledgeInterfaces,20DD2151;KnowledgeModeler,20DD2151;LiteralFeatures,20DD2151;Mainwin,20DD2151;Mathematics,21ED2151;MeasureGeometryInterfaces,20DD2151;MecModInterfaces,21DD2151;MechanicalCommands,20DD2151;MechanicalModeler,21EE2151;Multimedia,20DD2151;NewTopologicalObjects,21EC2151;ObjectModelerBase,21EC2151;ObjectModelerBaseUI,20DD2151;ObjectModelerCATIA,20DD2151;ObjectModelerCollection,20CC2151;ObjectModelerInterfaces,20DD2151;ObjectModelerNavigator,21ED2151;ObjectModelerSystem,20DD2151;ObjectSpecsModeler,21ED2151;PartInterfaces,20DD2151;PolygonalTools,20DD2151;PolyhedralInterfaces,20DD2151;PolyhedralMathematics,20DD2151;PolyhedralObjects,20DD2151;PolyhedralOperators,20DD2151;PolyhedralVisuOperators,20DD2151;PolyhedralVisualization,20DD2151;Print,20DD2151;PrintBase,20DD2151;ProductStructure,20DD2151;ProductStructureInterfaces,20DD2151;SketcherInterfaces,20DD2151;SpecialAPI,20DD2151;SurfacicGeoOperators,20DD2151;SurfacicInfrastructure,20DD2151;SurfacicMathematics,20DD2151;SurfacicTopoOperators,20DD2151;System,21DD2151;TRAICreateLineFWInterfaces,11EE2151;Tessellation,20DD2151;TopologicalOperators,20DD2151;VBA,20DD2151;Visualization,21ED2151;VisualizationBase,20DD2151;XMLParser,20DD2151;XlatorCGM,20DD2151;'
FW_INCPATH='"D:\CAA\TRACreateLineWS\.\TRACreateLineFW\PrivateInterfaces" "D:\CAA\TRACreateLineWS\.\TRACreateLineFW\PrivateGenerated\win_b64" "D:\CAA\TRACreateLineWS\.\TRACreateLineFW\ProtectedInterfaces" "D:\CAA\TRACreateLineWS\.\TRACreateLineFW\ProtectedGenerated\win_b64" "D:\CAA\TRACreateLineWS\.\TRACreateLineFW\PublicInterfaces" "D:\CAA\TRACreateLineWS\.\TRACreateLineFW\PublicGenerated\win_b64"'
WSENAME_msg='TRACreateLineFW\TRACreateLineFWUUID.m'
MOD_Container='TRACreateLineFWUUID.m'
MKMK_DEBUG='YES'
WSPATH='D:\CAA\TRACreateLineWS\.'
GLocal='D:\CAA\TRACreateLineWS\.\TRACreateLineFW\TRACreateLineFWUUID.m\LocalGenerated\win_b64'
ILocal='D:\CAA\TRACreateLineWS\.\TRACreateLineFW\TRACreateLineFWUUID.m\LocalInterfaces'
FWCOMPANYNAME='""'
MOD_INCPATH='"D:\CAA\TRACreateLineWS\.\TRACreateLineFW\TRACreateLineFWUUID.m\src" "D:\CAA\TRACreateLineWS\.\TRACreateLineFW\TRACreateLineFWUUID.m\LocalInterfaces" "D:\CAA\TRACreateLineWS\.\TRACreateLineFW\TRACreateLineFWUUID.m\LocalGenerated\win_b64"'
F_TRACreateLineFW='mkFramework "D:\CAA\TRACreateLineWS\.\TRACreateLineFW" TRACreateLineFW TRACreateLineFW - -'
FWPATH='D:\CAA\TRACreateLineWS\.\TRACreateLineFW'
FWIDENT='tracreatelinefw'
