WS_Concat='"D:\CAA\TRACreateLineWS\." "C:\Program Files\Dassault Systemes\B19\."'
RTViewDataListPath='D:\CAA\TRACreateLineWS\.\TRACreateLineCatalogFW\various\win_b64\TRACreateLineCatalogMod.m\module.data'
MKMK_DEVSTAGE=''
BUILT_OBJECT_TYPE='LOAD MODULE'
MKMK_BSCMAKE=''
WSEKEY='M_TRACreateLineCatalogMod'
MOD_Included='M_TRACreateLineCatalogMod'
MODNAME='TRACreateLineCatalogMod'
CONTNAME='TRACreateLineCatalogMod'
FWmkHLpath='D:\CAA\TRACreateLineWS\.\TRACreateLineCatalogFW\IdentityCard\Objects\win_b64\.mkHLpath.mk'
M_JS0GROUP='mkSharedLibrary "C:\Program Files\Dassault Systemes\B19\.\System\JS0GROUP.m" JS0GROUP JS0GROUP - -'
WIZARD_LINK_MODULES='JS0GROUP CATObjectSpecsModeler CATObjectModelerBase'
M_CATObjectSpecsModeler='mkSharedLibrary "C:\Program Files\Dassault Systemes\B19\.\ObjectSpecsModeler\CATObjectSpecsModeler.m" CATObjectSpecsModeler CATObjectSpecsModeler - -'
MKMK_WARNING=''
FWDNAME='TRACreateLineCatalogFW'
MKMK_ZIPJAVASOURCE=''
GPrivate='D:\CAA\TRACreateLineWS\.\TRACreateLineCatalogFW\PrivateGenerated\win_b64'
IPublic='D:\CAA\TRACreateLineWS\.\TRACreateLineCatalogFW\PublicInterfaces'
IPrivate='D:\CAA\TRACreateLineWS\.\TRACreateLineCatalogFW\PrivateInterfaces'
GPublic='D:\CAA\TRACreateLineWS\.\TRACreateLineCatalogFW\PublicGenerated\win_b64'
MKMK_DEBUGEDITANDCONTINUE=''
GProtected='D:\CAA\TRACreateLineWS\.\TRACreateLineCatalogFW\ProtectedGenerated\win_b64'
WSROOT='D:\CAA\TRACreateLineWS\.'
IProtected='D:\CAA\TRACreateLineWS\.\TRACreateLineCatalogFW\ProtectedInterfaces'
MKMK_DATA_VERSION='1.0.0'
STEPS_TO_CLEAN=''
NAME='D:\CAA\TRACreateLineWS\.\TRACreateLineCatalogFW\TRACreateLineCatalogMod.m\Objects\win_b64\.mkdata.mk'
STEPS_TO_BUILD='grammar1st grammar2nd sourcecheck caacheck typelibgrammar compilation sourceruler globalresource cpponly link rmsmanifest'
FWNAME='TRACreateLineCatalogFW'
M_CATObjectModelerNavigator='mkSharedLibrary "C:\Program Files\Dassault Systemes\B19\.\ObjectModelerNavigator\CATObjectModelerNavigator.m" CATObjectModelerNavigator CATObjectModelerNavigator - -'
MODPATH='D:\CAA\TRACreateLineWS\.\TRACreateLineCatalogFW\TRACreateLineCatalogMod.m'
FW_AllPreq='AutomationInterfaces,20DD2151;CATDataCompatibilityInfra,20DD2151;CATIADataBasics,20DD2151;CATJavaBridge,20DD2151;CATPDMBaseInterfaces,20DD2151;CATPLMDictionary,20DD2151;CATVirtualVaultSystem,20DD2151;InfInterfaces,20DD2151;Mainwin,20DD2151;ObjectModelerBase,21ED2151;ObjectModelerCATIA,20DD2151;ObjectModelerCollection,20CC2151;ObjectModelerInterfaces,20DD2151;ObjectModelerNavigator,20DD2151;ObjectModelerSystem,20DD2151;ObjectSpecsModeler,21EE2151;SpecialAPI,20DD2151;System,21ED2151;XMLParser,20DD2151;'
FW_INCPATH='"D:\CAA\TRACreateLineWS\.\TRACreateLineCatalogFW\PrivateInterfaces" "D:\CAA\TRACreateLineWS\.\TRACreateLineCatalogFW\PrivateGenerated\win_b64" "D:\CAA\TRACreateLineWS\.\TRACreateLineCatalogFW\ProtectedInterfaces" "D:\CAA\TRACreateLineWS\.\TRACreateLineCatalogFW\ProtectedGenerated\win_b64" "D:\CAA\TRACreateLineWS\.\TRACreateLineCatalogFW\PublicInterfaces" "D:\CAA\TRACreateLineWS\.\TRACreateLineCatalogFW\PublicGenerated\win_b64"'
WSENAME_msg='TRACreateLineCatalogFW\TRACreateLineCatalogMod.m'
MOD_Container='TRACreateLineCatalogMod.m'
MOD_LinkWith='M_JS0GROUP M_CATObjectSpecsModeler M_CATOmx M_CATObjectModelerBase M_ObjectModelerSystem M_CATObjectModelerNavigator'
REAL_LINK_WITH='JS0GROUP CATObjectSpecsModeler CATOmx CATObjectModelerBase ObjectModelerSystem CATObjectModelerNavigator'
M_CATObjectModelerBase='mkSharedLibrary "C:\Program Files\Dassault Systemes\B19\.\ObjectModelerBase\CATObjectModelerBase.m" CATObjectModelerBase CATObjectModelerBase - -'
MKMK_DEBUG='YES'
WSPATH='D:\CAA\TRACreateLineWS\.'
M_TRACreateLineCatalogMod='mkLoadModule "D:\CAA\TRACreateLineWS\.\TRACreateLineCatalogFW\TRACreateLineCatalogMod.m" TRACreateLineCatalogMod TRACreateLineCatalogMod - -'
GLocal='D:\CAA\TRACreateLineWS\.\TRACreateLineCatalogFW\TRACreateLineCatalogMod.m\LocalGenerated\win_b64'
ILocal='D:\CAA\TRACreateLineWS\.\TRACreateLineCatalogFW\TRACreateLineCatalogMod.m\LocalInterfaces'
F_TRACreateLineCatalogFW='mkFramework "D:\CAA\TRACreateLineWS\.\TRACreateLineCatalogFW" TRACreateLineCatalogFW TRACreateLineCatalogFW - -'
M_ObjectModelerSystem='mkSharedLibrary "C:\Program Files\Dassault Systemes\B19\.\ObjectModelerSystem\ObjectModelerSystem.m" ObjectModelerSystem ObjectModelerSystem - -'
FWCOMPANYNAME='""'
MOD_INCPATH='"D:\CAA\TRACreateLineWS\.\TRACreateLineCatalogFW\TRACreateLineCatalogMod.m\src" "D:\CAA\TRACreateLineWS\.\TRACreateLineCatalogFW\TRACreateLineCatalogMod.m\LocalInterfaces" "D:\CAA\TRACreateLineWS\.\TRACreateLineCatalogFW\TRACreateLineCatalogMod.m\LocalGenerated\win_b64"'
FWPATH='D:\CAA\TRACreateLineWS\.\TRACreateLineCatalogFW'
FWIDENT='tracreatelinecatalogfw'
LINK_WITH='JS0GROUP CATObjectSpecsModeler CATObjectModelerBase'
M_CATOmx='mkSharedLibrary "C:\Program Files\Dassault Systemes\B19\.\ObjectModelerCollection\CATOmx.m" CATOmx CATOmx - -'
