WS_Concat='"D:\CAA\TRACreateLineWS\." "C:\Program Files\Dassault Systemes\B19\."'
RTViewDataListPath='D:\CAA\TRACreateLineWS\.\TRAICreateLineFWInterfaces\various\win_b64\TRAICreateLineFWItfCPP.m\module.data'
MKMK_DEVSTAGE=''
BUILT_OBJECT_TYPE='NONE'
MKMK_BSCMAKE=''
WSEKEY='M_TRAICreateLineFWItfCPP'
M_TRAICreateLineFWItfCPP='mkNone "D:\CAA\TRACreateLineWS\.\TRAICreateLineFWInterfaces\TRAICreateLineFWItfCPP.m" TRAICreateLineFWItfCPP TRAICreateLineFWItfCPP - -'
MOD_Included='M_TRAICreateLineFWItf M_TRAICreateLineFWItfCPP'
MODNAME='TRAICreateLineFWItfCPP'
CONTNAME='TRAICreateLineFWItf'
FWmkHLpath='D:\CAA\TRACreateLineWS\.\TRAICreateLineFWInterfaces\IdentityCard\Objects\win_b64\.mkHLpath.mk'
MKMK_WARNING=''
F_TRAICreateLineFWInterfaces='mkFramework "D:\CAA\TRACreateLineWS\.\TRAICreateLineFWInterfaces" TRAICreateLineFWInterfaces TRAICreateLineFWInterfaces - -'
FWDNAME='TRAICreateLineFWInterfaces'
MKMK_ZIPJAVASOURCE=''
GPrivate='D:\CAA\TRACreateLineWS\.\TRAICreateLineFWInterfaces\PrivateGenerated\win_b64'
IPublic='D:\CAA\TRACreateLineWS\.\TRAICreateLineFWInterfaces\PublicInterfaces'
IPrivate='D:\CAA\TRACreateLineWS\.\TRAICreateLineFWInterfaces\PrivateInterfaces'
GPublic='D:\CAA\TRACreateLineWS\.\TRAICreateLineFWInterfaces\PublicGenerated\win_b64'
MKMK_DEBUGEDITANDCONTINUE=''
GProtected='D:\CAA\TRACreateLineWS\.\TRAICreateLineFWInterfaces\ProtectedGenerated\win_b64'
WSROOT='D:\CAA\TRACreateLineWS\.'
IProtected='D:\CAA\TRACreateLineWS\.\TRAICreateLineFWInterfaces\ProtectedInterfaces'
M_TRAICreateLineFWItf='mkSharedLibrary "D:\CAA\TRACreateLineWS\.\TRAICreateLineFWInterfaces\TRAICreateLineFWItf.m" TRAICreateLineFWItf TRAICreateLineFWItf - -'
MKMK_DATA_VERSION='1.0.0'
STEPS_TO_CLEAN=''
NAME='D:\CAA\TRACreateLineWS\.\TRAICreateLineFWInterfaces\TRAICreateLineFWItfCPP.m\Objects\win_b64\.mkdata.mk'
STEPS_TO_BUILD='grammar1st grammar2nd sourcecheck caacheck compilation sourceruler cpponly'
FWNAME='TRAICreateLineFWInterfaces'
MODPATH='D:\CAA\TRACreateLineWS\.\TRAICreateLineFWInterfaces\TRAICreateLineFWItfCPP.m'
FW_AllPreq='AutomationInterfaces,20DD2151;CATDataCompatibilityInfra,20DD2151;CATIADataBasics,20DD2151;CATJavaBridge,20DD2151;CATPDMBaseInterfaces,20DD2151;CATPLMDictionary,20DD2151;CATVirtualVaultSystem,20DD2151;InfInterfaces,20DD2151;Mainwin,20DD2151;ObjectModelerBase,20DD2151;ObjectModelerCATIA,20DD2151;ObjectModelerCollection,20CC2151;ObjectModelerInterfaces,20DD2151;ObjectModelerNavigator,20DD2151;ObjectModelerSystem,20DD2151;ObjectSpecsModeler,21DD2151;SpecialAPI,20DD2151;System,21DD2151;XMLParser,20DD2151;'
FW_INCPATH='"D:\CAA\TRACreateLineWS\.\TRAICreateLineFWInterfaces\PrivateInterfaces" "D:\CAA\TRACreateLineWS\.\TRAICreateLineFWInterfaces\PrivateGenerated\win_b64" "D:\CAA\TRACreateLineWS\.\TRAICreateLineFWInterfaces\ProtectedInterfaces" "D:\CAA\TRACreateLineWS\.\TRAICreateLineFWInterfaces\ProtectedGenerated\win_b64" "D:\CAA\TRACreateLineWS\.\TRAICreateLineFWInterfaces\PublicInterfaces" "D:\CAA\TRACreateLineWS\.\TRAICreateLineFWInterfaces\PublicGenerated\win_b64"'
WSENAME_msg='TRAICreateLineFWInterfaces\TRAICreateLineFWItfCPP.m'
MOD_Container='TRAICreateLineFWItf.m'
MKMK_DEBUG='YES'
WSPATH='D:\CAA\TRACreateLineWS\.'
GLocal='D:\CAA\TRACreateLineWS\.\TRAICreateLineFWInterfaces\TRAICreateLineFWItfCPP.m\LocalGenerated\win_b64'
ILocal='D:\CAA\TRACreateLineWS\.\TRAICreateLineFWInterfaces\TRAICreateLineFWItfCPP.m\LocalInterfaces'
FWCOMPANYNAME='""'
MOD_INCPATH='"D:\CAA\TRACreateLineWS\.\TRAICreateLineFWInterfaces\TRAICreateLineFWItfCPP.m\src" "D:\CAA\TRACreateLineWS\.\TRAICreateLineFWInterfaces\TRAICreateLineFWItfCPP.m\LocalInterfaces" "D:\CAA\TRACreateLineWS\.\TRAICreateLineFWInterfaces\TRAICreateLineFWItfCPP.m\LocalGenerated\win_b64"'
FWPATH='D:\CAA\TRACreateLineWS\.\TRAICreateLineFWInterfaces'
FWIDENT='traicreatelinefwinterfaces'
