WS_Concat='"D:\CAA\TRACreateLineWS\." "C:\Program Files\Dassault Systemes\B19\."'
RTViewDataListPath='D:\CAA\TRACreateLineWS\.\TRACommandFW\various\win_b64\TRACommandAddin.m\module.data'
MKMK_DEVSTAGE=''
BUILT_OBJECT_TYPE='SHARED LIBRARY'
MKMK_BSCMAKE=''
WSEKEY='M_TRACommandAddin'
MOD_Included='M_TRACommandAddin'
MODNAME='TRACommandAddin'
CONTNAME='TRACommandAddin'
FWmkHLpath='D:\CAA\TRACreateLineWS\.\TRACommandFW\IdentityCard\Objects\win_b64\.mkHLpath.mk'
M_JS0GROUP='mkSharedLibrary "C:\Program Files\Dassault Systemes\B19\.\System\JS0GROUP.m" JS0GROUP JS0GROUP - -'
WIZARD_LINK_MODULES='JS0GROUP JS0FM JS0GROUP GSMInterfacesUUID CATApplicationFrame CATGitInterfaces'
MKMK_WARNING=''
M_TRACommandAddin='mkSharedLibrary "D:\CAA\TRACreateLineWS\.\TRACommandFW\TRACommandAddin.m" TRACommandAddin TRACommandAddin - -'
M_JS0FM='mkSharedLibrary "C:\Program Files\Dassault Systemes\B19\.\System\JS0FM.m" JS0FM JS0FM - -'
FWDNAME='TRACommandFW'
M_CATGitInterfaces='mkSharedLibrary "C:\Program Files\Dassault Systemes\B19\.\GSMInterfaces\CATGitInterfaces.m" CATGitInterfaces CATGitInterfaces - -'
MKMK_ZIPJAVASOURCE=''
GPrivate='D:\CAA\TRACreateLineWS\.\TRACommandFW\PrivateGenerated\win_b64'
M_GSMInterfacesUUID='mkArchive "C:\Program Files\Dassault Systemes\B19\.\GSMInterfaces\GSMInterfacesUUID.m" GSMInterfacesUUID GSMInterfacesUUID - -'
IPublic='D:\CAA\TRACreateLineWS\.\TRACommandFW\PublicInterfaces'
IPrivate='D:\CAA\TRACreateLineWS\.\TRACommandFW\PrivateInterfaces'
GPublic='D:\CAA\TRACreateLineWS\.\TRACommandFW\PublicGenerated\win_b64'
MKMK_DEBUGEDITANDCONTINUE=''
GProtected='D:\CAA\TRACreateLineWS\.\TRACommandFW\ProtectedGenerated\win_b64'
WSROOT='D:\CAA\TRACreateLineWS\.'
IProtected='D:\CAA\TRACreateLineWS\.\TRACommandFW\ProtectedInterfaces'
MKMK_DATA_VERSION='1.0.0'
STEPS_TO_CLEAN=''
NAME='D:\CAA\TRACreateLineWS\.\TRACommandFW\TRACommandAddin.m\Objects\win_b64\.mkdata.mk'
STEPS_TO_BUILD='grammar1st grammar2nd sourcecheck caacheck typelibgrammar compilation sourceruler globalresource cpponly link1st link2nd'
FWNAME='TRACommandFW'
M_CATApplicationFrame='mkSharedLibrary "C:\Program Files\Dassault Systemes\B19\.\ApplicationFrame\CATApplicationFrame.m" CATApplicationFrame CATApplicationFrame - -'
MODPATH='D:\CAA\TRACreateLineWS\.\TRACommandFW\TRACommandAddin.m'
MOD_Depend='M_GSMInterfacesUUID'
FW_AllPreq='ApplicationFrame,21DD2151;AutomationInterfaces,20DD2151;BatchInfrastructure,20DD2151;CATDataCompatibilityInfra,20DD2151;CATIADataBasics,20DD2151;CATJavaBridge,20DD2151;CATPDMBaseInterfaces,20DD2151;CATPLMDictionary,20DD2151;CATTechnologicalPackageUIItf,20DD2151;CATVirtualVaultSystem,20DD2151;Communications,20DD2151;Dialog,20DD2151;DialogEngine,20DD2151;GSMInterfaces,21DD2151;Graph,20DD2151;InfInterfaces,20DD2151;InteractiveInterfaces,20DD2151;KnowledgeInterfaces,20DD2151;Mainwin,20DD2151;Mathematics,20DD2151;MecModInterfaces,20DD2151;ObjectModelerBase,20DD2151;ObjectModelerCATIA,20DD2151;ObjectModelerCollection,20CC2151;ObjectModelerInterfaces,20DD2151;ObjectModelerNavigator,20DD2151;ObjectModelerSystem,20DD2151;ObjectSpecsModeler,20DD2151;ProductStructureInterfaces,20DD2151;SketcherInterfaces,20DD2151;SpecialAPI,20DD2151;System,21DD2151;VBA,20DD2151;Visualization,20DD2151;VisualizationBase,20DD2151;XMLParser,20DD2151;'
FW_INCPATH='"D:\CAA\TRACreateLineWS\.\TRACommandFW\PrivateInterfaces" "D:\CAA\TRACreateLineWS\.\TRACommandFW\PrivateGenerated\win_b64" "D:\CAA\TRACreateLineWS\.\TRACommandFW\ProtectedInterfaces" "D:\CAA\TRACreateLineWS\.\TRACommandFW\ProtectedGenerated\win_b64" "D:\CAA\TRACreateLineWS\.\TRACommandFW\PublicInterfaces" "D:\CAA\TRACreateLineWS\.\TRACommandFW\PublicGenerated\win_b64"'
WSENAME_msg='TRACommandFW\TRACommandAddin.m'
MOD_Container='TRACommandAddin.m'
MOD_LinkWith='M_GSMInterfacesUUID M_JS0GROUP M_JS0FM M_CATApplicationFrame M_CATGitInterfaces'
REAL_LINK_WITH='GSMInterfacesUUID JS0GROUP JS0FM CATApplicationFrame CATGitInterfaces'
MKMK_DEBUG='YES'
WSPATH='D:\CAA\TRACreateLineWS\.'
GLocal='D:\CAA\TRACreateLineWS\.\TRACommandFW\TRACommandAddin.m\LocalGenerated\win_b64'
ILocal='D:\CAA\TRACreateLineWS\.\TRACommandFW\TRACommandAddin.m\LocalInterfaces'
FWCOMPANYNAME='""'
MOD_INCPATH='"D:\CAA\TRACreateLineWS\.\TRACommandFW\TRACommandAddin.m\src" "D:\CAA\TRACreateLineWS\.\TRACommandFW\TRACommandAddin.m\LocalInterfaces" "D:\CAA\TRACreateLineWS\.\TRACommandFW\TRACommandAddin.m\LocalGenerated\win_b64"'
FWPATH='D:\CAA\TRACreateLineWS\.\TRACommandFW'
FWIDENT='tracommandfw'
LINK_WITH='JS0GROUP JS0FM JS0GROUP GSMInterfacesUUID CATApplicationFrame CATGitInterfaces'
F_TRACommandFW='mkFramework "D:\CAA\TRACreateLineWS\.\TRACommandFW" TRACommandFW TRACommandFW - -'
